/*--------------------------------*- C++ -*----------------------------------*\
| =========                 |                                                 |
| \\      /  F ield         | OpenFOAM: The Open Source CFD Toolbox           |
|  \\    /   O peration     | Version:  2412                                  |
|   \\  /    A nd           | Website:  www.openfoam.com                      |
|    \\/     M anipulation  |                                                 |
\*---------------------------------------------------------------------------*/
FoamFile
{
    version     2.0;
    format      ascii;
    arch        "LSB;label=32;scalar=64";
    class       polyBoundaryMesh;
    location    "constant/polyMesh";
    object      boundary;
}
// * * * * * * * * * * * * * * * * * * * * * * * * * * * * * * * * * * * * * //

4
(
    floatingObject
    {
        type            patch;
        nFaces          320;
        startFace       127680;
    }
    rim
    {
        type            patch;
        nFaces          320;
        startFace       128000;
    }
    front
    {
        type            empty;
        inGroups        1(empty);
        nFaces          64000;
        startFace       128320;
    }
    back
    {
        type            empty;
        inGroups        1(empty);
        nFaces          64000;
        startFace       192320;
    }
)

// ************************************************************************* //
